#
# Specifications for Build step mkBSLnkShl2nd
#
include mkBSLnkCommonDecl.mk
#
LD_OPTS = /DLL $(LOCAL_OPTS) $(_MK_COMMON_OPTS) $(MACHINE_FLAG) /MANIFEST
LD_LIBS = $(LOCAL_LIBS) $(WS_LIBS) $(_MK_COMMON_LIBS)
LD_LIBPATH = $(LOCAL_LIBPATH) $(WS_LIBPATH) $(_MK_COMMON_LIBPATH)
# ~1
LD_COMMAND = "$(LD)" $(LD_OPTS) $(_MK_MANIFESTFILE_OPTS) $(LD_LIBPATH) $(LD_LIBS) @"$(LD_OBJLIST)" /OUT:
#
DGM_VERSION = 1.0
# ~3
MANIFEST_COMMAND = "$(MT_COMPILER)" -nologo -manifest "$(_MK_MANIFESTFILE)"%MANIFEST_OBJECTS% -outputresource:"$(RUNTIME_NAME);2"
EXTRA_COMMAND = $(MANIFEST_COMMAND)
#
#SCRIPT_COMMAND = LD_COMMAND [1] MANIFEST_COMMAND LD_SIGN_COMMAND
# ~2 = CAAV5Licensing
SCRIPT_COMMAND = ~1 ~2 ~3
#
KEYPAIR = $(MODPATH)\src\cert\KEYPAIR.BIN
DIGEST = $(GLocal)\digest.rc
MAKEMD32_EXE = $(MkmkROOTINSTALL_PATH)\AdobeMake\Makemd32.exe
ADOBE_MAKE_OPTIONS = $(GLocal)\makem32Options.txt
ADOBE_MAKE_COMMAND = $(MAKEMD32_EXE) < $(ADOBE_MAKE_OPTIONS)
MAKEMD32_BAT = $(GLocal)\Makemd32.bat
ADOBE_LOGNAME = makemd32.log
#
