#
# Descriptions des modules de types "DOC_BASE"
#
OS = COMMON
#
TYPELATE = mkDocBase
#
IMAKEKEY_VALID      = SUBSTITUTION_FILE
#
TARGETS_VALID       = docbase docupdate doccheck clean DoxBase
#
# TARGETS_MANDATORIES = docbase docupdate doccheck
#
# ---------------- speciale du chef ----------------
#
OBJPATH            = $(MODPATH)/Objects/$(MkmkOS_DOC)
#
